<routes>
    <route id="mainRoute" edges="1to2 2to3"/>
    <route id="exitRoute" edges="1to2 exit"/>
    
    <vType id="Car" accel="1.0" decel="5.0" length="4.5" maxSpeed="34.7" sigma="0.5"/>
    <vType id="Truck" accel="1.0" decel="5.0" length="12.0" maxSpeed="27.7" sigma="0.7"/>
    <vType id="Bus" accel="1.0" decel="5.0" length="12.0" maxSpeed="34.7" sigma="0.6" />
    <vType id="Ego_veh" accel="2.0" decel="5.0" length="4.5" maxSpeed="34.7" sigma="0.0" color="255,0,0"/>

    <flow id="flow1" type="Car" begin="0" end="1000" number="50" route="mainRoute" departLane="0" arrivalLane="0"/>
    <flow id="flow2" type="Truck" begin="10" end="500" number="20" route="mainRoute" departLane="1" arrivalLane="1"/>
    <flow id="flow3" type="Bus" begin="50" end="400" number="20" route="mainRoute" departLane="random" arrivalLane="2"/>
    

    <vehicle depart="130" id="Ego" route="exitRoute" type="Ego_veh" departLane="3" arrivalLane="0"/>

</routes>

