<nodes>
    <node id="1" x="0.0" y="0.0" />
    <node id="2" x="+1000.0" y="0.0" />
    <node id="3" x="+1500.0" y="0.0" />
    <node id="4" x="1200" y="-300.0"/>
</nodes>
