<?xml version="1.0" encoding="UTF-8"?>

<!-- generated on 2024-11-21 10:07:38 by Eclipse SUMO GUI Version 1.21.0
-->

<sumoConfiguration xmlns:xsi="http://www.w3.org/2001/XMLSchema-instance" xsi:noNamespaceSchemaLocation="http://sumo.dlr.de/xsd/sumoConfiguration.xsd">

</sumoConfiguration>
