<?xml version="1.0" encoding="UTF-8"?>

<!-- generated on 2024-11-18 11:14:00 by Eclipse SUMO netedit Version 1.21.0
-->

<routes xmlns:xsi="http://www.w3.org/2001/XMLSchema-instance" xsi:noNamespaceSchemaLocation="http://sumo.dlr.de/xsd/routes_file.xsd">
    <!-- Vehicles, persons and containers (sorted by depart) -->
    <!--red-->
    <trip id="t_0" depart="0.00" departLane="1" departPos="20" departSpeed="6.11" color="133,35,0" from="E0" to="E1"/>
    <!--yellow-->
    <trip id="t_1" depart="0.00" departLane="1" departPos="5" departSpeed="6.11" from="E0" to="E2"/>
    <!--brown-->
    <trip id="t_2" depart="0.00" departLane="0" departPos="0" departSpeed="6.11" color="255,17,0" from="E0" to="E1"/>
    <!--blue-->
    <trip id="t_3" depart="0.00" departLane="0" departPos="25" departSpeed="6.11" color="240,35,100" from="E0" to="E1"/>
</routes>
